12
XYZ
C            -1.060293998     0.181743982     0.234630760
H            -0.138254503     0.196460152    -0.331195926
H            -1.969502639     0.201388611    -0.351443235
C            -1.074798459     0.142082658     1.539898893
H            -0.165472886     0.121741775     2.125814911
H            -1.996903474     0.126681934     2.105612036
C            -1.093370927    -1.655544030     1.547456159
H            -2.013271223    -1.662428272     2.116884493
H            -0.182279987    -1.628300063     2.130300338
C            -1.083403094    -1.677858818     0.241738145
H            -1.994624321    -1.704410548    -0.340978629
H            -0.163434490    -1.670267382    -0.327597943
