12
XYZ
C            -0.445139293     2.958540417     0.964881959
H             0.135918297     3.870986956     0.986660761
H             0.126368351     2.039959849     0.946241826
C            -1.751161056     2.965715254     0.961321282
H            -2.322219753     3.884521297     0.979923917
H            -2.332629425     2.053469501     0.939586615
C            -1.108869744    -0.353973145     0.285806687
H            -1.104263009     0.564152603    -0.286703073
H            -1.115489099    -1.267287873    -0.294281028
C            -1.106604845    -0.359704691     1.591833625
H            -1.100034417     0.553382966     2.172343530
H            -1.111176007    -1.278073131     2.163893901
