12
XYZ
C            -1.098600663     2.309190675     0.966498310
H            -1.104374354     1.728446090     0.053610958
H            -1.093644049     1.737363666     1.885055878
C            -1.097685164     3.615219753     0.959849241
H            -1.102687160     4.186598047     0.041067186
H            -1.091871488     4.196375042     1.872534787
C            -1.104292699    -1.009809249     0.926539557
H            -0.185712107    -1.581544321     0.918040217
H            -2.017174945    -1.590465369     0.913354675
C            -1.111029745     0.295983978     0.951095692
H            -0.198375076     0.877062870     0.964239682
H            -2.029852549     0.867268821     0.959623819
