12
XYZ
C            -1.133768036     2.121904997     1.616105192
H            -1.132161582     1.205738101     2.191688864
H            -1.127660802     3.037230105     2.193081231
C            -1.142518363     2.122634933     0.310088385
H            -1.148666894     1.207082654    -0.266439897
H            -1.144087201     3.038602483    -0.265907414
C            -0.454729225    -0.354111150     0.939339231
H             0.122641540    -0.353432036     0.024251216
H             0.120497961    -0.349852012     1.855737022
C            -1.760758104    -0.359720140     0.938135318
H            -2.336408384    -0.364028932     0.021962749
H            -2.337680910    -0.360359001     1.853468107
