12
XYZ
C            -1.092381003     2.950139029     1.615983116
H            -2.003146554     2.932421485     2.199809397
H            -0.171767149     2.946577079     2.184504133
C            -1.103764561     2.974259092     0.310209155
H            -2.024601858     2.977854749    -0.257861600
H            -0.193201753     2.991941840    -0.274027840
C            -1.108869744    -0.353973145     0.285806687
H            -1.104263009     0.564152603    -0.286703073
H            -1.115489099    -1.267287873    -0.294281028
C            -1.106604845    -0.359704691     1.591833625
H            -1.100034417     0.553382966     2.172343530
H            -1.111176007    -1.278073131     2.163893901
