12
XYZ
C            -0.485136674     2.125649627     0.964208251
H             0.089304570     2.127377097     1.881091667
H             0.092989532     2.130021153     0.049599220
C            -1.791162639     2.118747315     0.961855012
H            -2.368841894     2.114421566     1.876691940
H            -2.366015773     2.116976516     0.045170270
C            -0.454729225    -0.354111150     0.939339231
H             0.122641540    -0.353432036     0.024251216
H             0.120497961    -0.349852012     1.855737022
C            -1.760758104    -0.359720140     0.938135318
H            -2.336408384    -0.364028932     0.021962749
H            -2.337680910    -0.360359001     1.853468107
