12
XYZ
C            -1.091757874     2.965119293     1.616082162
H            -1.104818096     2.051985476     2.196320897
H            -1.067441795     3.883084834     2.188364169
C            -1.104526010     2.959420531     0.310110685
H            -1.128886074     2.041230858    -0.261722289
H            -1.091433029     3.872352283    -0.270539265
C            -1.108869744    -0.353973145     0.285806687
H            -1.104263009     0.564152603    -0.286703073
H            -1.115489099    -1.267287873    -0.294281028
C            -1.106604845    -0.359704691     1.591833625
H            -1.100034417     0.553382966     2.172343530
H            -1.111176007    -1.278073131     2.163893901
